<?xml version="1.0" encoding="UTF-8"?>
<configuration>
  <input>
    <net-file value="two_intersection.net.xml"/>
    <route-files value="randomRoutes.rou.xml"/>
  </input>
  <time>
    <begin value="0"/>
    <end value="1000"/>
  </time>
</configuration>

